Version 4
SHEET 1 880 680
FLAG 400 160 0
FLAG 400 368 0
FLAG 400 32 Vin
FLAG 400 240 Vb
FLAG 176 288 0
FLAG 272 208 Vout
FLAG 80 192 Vin
FLAG 80 224 Vb
FLAG 592 368 0
SYMBOL CurrentStarvedInverter 176 208 R0
SYMATTR InstName X1
SYMBOL cktsym\\vsource 400 96 R0
SYMATTR Value PULSE(0 5 0 1p 1p 1m 2m 5)
SYMATTR InstName Vin
SYMBOL cktsym\\vsource 400 304 R0
SYMATTR Value .35
SYMATTR InstName Vb
SYMBOL cktsym\\vdd 176 128 R0
SYMATTR InstName U1
SYMBOL cktsym\\vsource 592 304 R0
SYMATTR Value 5
SYMATTR InstName Vdd
SYMBOL cktsym\\vdd 592 240 R0
SYMATTR InstName U2
TEXT -24 392 Left 2 !.tran 0 10m 0 22u
TEXT 488 -128 Left 2 !.include engr2420.sub
