Version 4
SHEET 1 880 680
FLAG 400 160 0
FLAG 400 368 0
FLAG 400 32 Vin
FLAG 400 240 Vb
SYMBOL CurrentStarvedInverter 176 208 R0
SYMATTR InstName X1
SYMBOL cktsym\\vsource 400 96 R0
SYMATTR Value PULSE(0 5 0 1p 1p 1m 2m 5)
SYMATTR InstName Vin
SYMBOL cktsym\\vsource 400 304 R0
SYMATTR Value .35
SYMATTR InstName Vb
TEXT -26 392 Left 2 !.tran 0 10m 0 100u
TEXT 488 -128 Left 2 !.include engr2420.sub
