Version 4
SHEET 1 880 680
WIRE 480 -48 336 -48
WIRE -96 -16 -96 -32
WIRE 32 -16 32 -32
WIRE 336 16 336 -48
WIRE 336 16 272 16
WIRE -96 80 -96 64
WIRE 32 80 32 64
WIRE 480 80 448 80
WIRE 448 144 448 80
WIRE 448 144 416 144
WIRE 624 144 544 144
WIRE -96 176 -96 160
WIRE 448 208 448 144
WIRE 480 208 448 208
WIRE -96 272 -96 256
WIRE 272 272 272 16
WIRE 336 336 192 336
WIRE 480 336 336 336
FLAG 32 80 0
FLAG 32 -32 Vdd
FLAG -96 80 0
FLAG -96 -32 Vb
FLAG -96 272 0
FLAG -96 160 Vin
FLAG 624 144 Vout
FLAG 544 400 0
FLAG 416 144 Vin
FLAG 272 -112 Vdd
FLAG 544 -112 Vdd
FLAG 272 400 0
FLAG 192 336 Vb
SYMBOL voltage 32 -32 R0
SYMATTR InstName Vdd
SYMATTR Value 5
SYMBOL voltage -96 -32 R0
WINDOW 123 0 0 Left 2
WINDOW 39 0 0 Left 2
SYMATTR InstName Vb
SYMATTR Value 0.4
SYMBOL voltage -96 160 R0
WINDOW 123 0 0 Left 2
WINDOW 39 0 0 Left 2
SYMATTR InstName Vin
SYMATTR Value PULSE(0 5 1p 1p 1p 1m 2m 5)
SYMBOL cktsym\\nmos3 544 336 R0
SYMATTR InstName M1
SYMBOL cktsym\\nmos3 544 208 R0
SYMATTR InstName M2
SYMBOL cktsym\\pmos3 544 80 R0
SYMATTR InstName M3
SYMBOL cktsym\\pmos3 544 -48 R0
SYMATTR InstName M4
SYMBOL cktsym\\pmos3 272 -48 M0
SYMATTR InstName M5
SYMBOL cktsym\\nmos3 272 336 M0
SYMATTR InstName Mb
TEXT -112 -176 Left 2 !.include engr2420.sub
TEXT -112 -144 Left 2 !current starved inverter
TEXT -112 -112 Left 2 !.tran 0 10m 0 10u
