Version 4
SHEET 1 880 680
WIRE 240 -32 96 -32
WIRE 96 32 96 -32
WIRE 96 32 32 32
WIRE 240 160 240 96
WIRE 240 160 208 160
WIRE 400 160 304 160
WIRE 240 224 240 160
WIRE 32 288 32 32
WIRE 96 352 -32 352
WIRE 240 352 96 352
FLAG 400 160 Vout
IOPIN 400 160 Out
FLAG 208 160 Vin
IOPIN 208 160 In
FLAG 32 416 0
FLAG 304 416 0
FLAG -32 352 Vb
IOPIN -32 352 In
FLAG -256 112 0
SYMBOL cktsym\\nmos3 304 224 R0
SYMATTR InstName U1
SYMBOL cktsym\\nmos3 304 352 R0
SYMATTR InstName U2
SYMBOL cktsym\\pmos3 304 96 R0
SYMATTR InstName U3
SYMBOL cktsym\\pmos3 304 -32 R0
SYMATTR InstName U4
SYMBOL cktsym\\pmos3 32 -32 M0
SYMATTR InstName U5
SYMBOL cktsym\\nmos3 32 352 M0
SYMATTR InstName U6
SYMBOL cktsym\\vdd 32 -96 R0
SYMATTR InstName U7
SYMBOL cktsym\\vdd 304 -96 R0
SYMATTR InstName U8
SYMBOL voltage -256 16 R0
SYMATTR InstName Vdd
SYMATTR Value 5
SYMBOL cktsym\\vdd -256 32 R0
SYMATTR InstName U9
TEXT -360 -80 Left 2 !.include engr2420.sub
