Version 4
SHEET 1 880 680
WIRE 160 -192 112 -192
WIRE 336 -192 160 -192
WIRE 400 -96 400 -128
WIRE 48 -80 48 -128
WIRE 160 -80 160 -192
WIRE 160 -80 48 -80
WIRE 336 -32 288 -32
WIRE 288 64 288 -32
WIRE 288 64 208 64
WIRE 400 64 400 32
WIRE 512 64 400 64
WIRE 400 96 400 64
WIRE 288 160 288 64
WIRE 336 160 288 160
WIRE 48 272 48 -80
WIRE 400 272 400 224
WIRE 400 288 400 272
WIRE -16 336 -128 336
WIRE 336 336 -16 336
FLAG 512 64 Vout
FLAG -128 336 Vb
FLAG 48 -256 Vdd
FLAG 400 -256 Vdd
FLAG 208 64 Vin
FLAG -256 -160 0
FLAG -256 -288 Vdd
SYMBOL cktsym\\nmos3 48 336 R0
WINDOW 0 -22 -15 Left 2
SYMATTR InstName Mb
SYMBOL cktsym\\pmos3 48 -192 R180
SYMATTR InstName U2
SYMBOL cktsym\\pmos3 400 -32 R0
WINDOW 0 -28 -13 Left 2
SYMATTR InstName M3
SYMBOL cktsym\\pmos3 400 160 R0
WINDOW 0 -26 -13 Left 2
SYMATTR InstName M2
SYMBOL cktsym\\pmos3 400 336 R0
WINDOW 0 -27 -13 Left 2
SYMATTR InstName M1
SYMBOL cktsym\\pmos3 400 -192 R0
WINDOW 0 -25 -13 Left 2
SYMATTR InstName M4
SYMBOL cktsym\\vsource -256 -224 R0
SYMATTR InstName Vdd
TEXT -112 464 Left 2 !.include engr2420.sub
