Version 4
SHEET 1 880 680
WIRE 176 -96 176 -128
WIRE 176 -96 32 -96
WIRE 304 -96 176 -96
WIRE 240 -32 96 -32
WIRE 96 32 96 -32
WIRE 96 32 32 32
WIRE 240 160 240 96
WIRE 240 160 208 160
WIRE 400 160 304 160
WIRE 240 224 240 160
WIRE 32 288 32 32
WIRE 96 352 -32 352
WIRE 240 352 96 352
WIRE 176 416 32 416
WIRE 304 416 176 416
WIRE 176 432 176 416
FLAG 400 160 Vout
IOPIN 400 160 Out
FLAG 208 160 Vin
IOPIN 208 160 In
FLAG -32 352 Vb
IOPIN -32 352 In
FLAG 176 432 GND
IOPIN 176 432 In
FLAG 176 -128 Vdd
IOPIN 176 -128 In
SYMBOL cktsym\\nmos3 304 224 R0
SYMATTR InstName U1
SYMBOL cktsym\\nmos3 304 352 R0
SYMATTR InstName U2
SYMBOL cktsym\\pmos3 304 96 R0
SYMATTR InstName U3
SYMBOL cktsym\\pmos3 304 -32 R0
SYMATTR InstName U4
SYMBOL cktsym\\pmos3 32 -32 M0
SYMATTR InstName U5
SYMBOL cktsym\\nmos3 32 352 M0
SYMATTR InstName U6
TEXT -360 -80 Left 2 !.include engr2420.sub
