Version 4
SHEET 1 880 680
WIRE 224 -256 224 -288
WIRE 224 -256 48 -256
WIRE 400 -256 224 -256
WIRE 144 -192 112 -192
WIRE 336 -192 144 -192
WIRE 48 -112 48 -128
WIRE 144 -112 144 -192
WIRE 144 -112 48 -112
WIRE 400 -96 400 -128
WIRE -336 -80 -336 -96
WIRE -208 -80 -208 -96
WIRE 336 -32 288 -32
WIRE -336 16 -336 0
WIRE -208 16 -208 0
WIRE 288 64 288 -32
WIRE 288 64 208 64
WIRE 400 64 400 32
WIRE 512 64 400 64
WIRE 400 96 400 64
WIRE -336 112 -336 96
WIRE 288 160 288 64
WIRE 336 160 288 160
WIRE -336 208 -336 192
WIRE 48 272 48 -112
WIRE 400 272 400 224
WIRE 400 288 400 272
WIRE -16 336 -128 336
WIRE 336 336 -16 336
FLAG 512 64 Vout
FLAG -128 336 Vb
FLAG 208 64 Vin
FLAG 48 400 0
FLAG 400 400 0
FLAG -208 16 0
FLAG -208 -96 Vdd
FLAG -336 16 0
FLAG -336 -96 Vb
FLAG -336 208 0
FLAG -336 96 Vin
FLAG 224 -288 Vdd
SYMBOL cktsym\\nmos3 48 336 R0
WINDOW 0 -22 -15 Left 2
SYMATTR InstName Mb
SYMBOL cktsym\\pmos3 48 -192 R180
WINDOW 0 -23 12 Left 2
SYMATTR InstName M5
SYMBOL cktsym\\pmos3 400 -32 R0
WINDOW 0 -28 -13 Left 2
SYMATTR InstName M3
SYMBOL cktsym\\pmos3 400 -192 R0
WINDOW 0 -25 -13 Left 2
SYMATTR InstName M4
SYMBOL cktsym\\nmos3 400 336 R0
WINDOW 0 -26 -9 Left 2
SYMATTR InstName M1
SYMBOL cktsym\\nmos3 400 160 R0
WINDOW 0 -23 -7 Left 2
SYMATTR InstName M2
SYMBOL voltage -208 -96 R0
SYMATTR InstName Vdd
SYMATTR Value 5
SYMBOL voltage -336 -96 R0
WINDOW 123 0 0 Left 2
WINDOW 39 0 0 Left 2
SYMATTR InstName Vb
SYMATTR Value 0.4
SYMBOL voltage -336 96 R0
WINDOW 123 0 0 Left 2
WINDOW 39 0 0 Left 2
SYMATTR InstName Vin
SYMATTR Value PULSE(0 5 1p 1p 1p 1m 2m 5)
TEXT -336 -320 Left 2 !.include engr2420.sub
TEXT -336 -288 Left 2 !current starved inverter
TEXT -338 -256 Left 2 !.tran 0 10m 0 10u
