Version 4
SHEET 1 880 680
WIRE 400 -256 48 -256
WIRE 160 -192 112 -192
WIRE 336 -192 160 -192
WIRE 400 -96 400 -128
WIRE 48 -80 48 -128
WIRE 160 -80 160 -192
WIRE 160 -80 48 -80
WIRE 336 -32 288 -32
WIRE 288 64 288 -32
WIRE 288 64 208 64
WIRE 400 64 400 32
WIRE 512 64 400 64
WIRE 400 96 400 64
WIRE 288 160 288 64
WIRE 336 160 288 160
WIRE 48 272 48 -80
WIRE 400 272 400 224
WIRE 400 288 400 272
WIRE -16 336 -128 336
WIRE 336 336 -16 336
FLAG 512 64 Vout
IOPIN 512 64 Out
FLAG -128 336 Vb
IOPIN -128 336 In
FLAG 400 -256 Vdd
IOPIN 400 -256 In
FLAG 208 64 Vin
IOPIN 208 64 In
FLAG 48 400 0
FLAG 400 400 0
SYMBOL cktsym\\nmos3 48 336 R0
WINDOW 0 -22 -15 Left 2
SYMATTR InstName Mb
SYMBOL cktsym\\pmos3 48 -192 R180
SYMATTR InstName M5
SYMBOL cktsym\\pmos3 400 -32 R0
WINDOW 0 -28 -13 Left 2
SYMATTR InstName M3
SYMBOL cktsym\\pmos3 400 -192 R0
WINDOW 0 -25 -13 Left 2
SYMATTR InstName M4
SYMBOL cktsym\\nmos3 400 336 R0
WINDOW 0 -26 -9 Left 2
SYMATTR InstName M1
SYMBOL cktsym\\nmos3 400 160 R0
WINDOW 0 -23 -7 Left 2
SYMATTR InstName M2
TEXT -336 -320 Left 2 !.include engr2420.sub
TEXT -336 -288 Left 2 !current starved inverter
