Version 4
SHEET 1 880 680
WIRE -288 192 -352 192
WIRE -288 224 -304 224
WIRE -304 336 -304 224
WIRE -96 336 -96 240
WIRE -96 336 -304 336
WIRE 96 336 96 256
WIRE 96 336 -96 336
WIRE -352 368 -352 192
WIRE 288 368 288 240
WIRE 288 368 -352 368
WIRE -304 400 -304 336
FLAG -304 480 0
FLAG -64 16 0
FLAG 192 320 0
FLAG 0 304 0
FLAG -192 288 0
SYMBOL voltage -304 384 R0
SYMATTR InstName Bias
SYMATTR Value 0.31
SYMBOL voltage -64 -80 R0
WINDOW 123 0 0 Left 2
WINDOW 39 0 0 Left 2
SYMATTR InstName Vdd
SYMATTR Value 5
SYMBOL cktsym\\vdd -64 -64 R0
SYMATTR InstName U1
SYMBOL currentstarvedinverter -192 208 R0
SYMATTR InstName X1
SYMBOL currentstarvedinverter 0 224 R0
SYMATTR InstName X2
SYMBOL currentstarvedinverter 192 240 R0
SYMATTR InstName X3
SYMBOL cktsym\\vdd -192 128 R0
SYMATTR InstName U3
SYMBOL cktsym\\vdd 0 144 R0
SYMATTR InstName U4
SYMBOL cktsym\\vdd 192 160 R0
SYMATTR InstName U5
TEXT -224 -144 Left 2 !.tran 0 100m 0 100u
TEXT -224 -168 Left 2 !.include engr2420.sub
TEXT -720 -8 Left 2 !.step param Bias 0.2 0.5 0.1
TEXT -712 -40 Left 2 !.param Bias 0.3
