Version 4
SHEET 1 880 680
FLAG 144 48 Vb
FLAG 240 48 Vdd
FLAG 48 176 Vin
FLAG -272 160 0
FLAG -128 160 0
FLAG -272 32 Vb
FLAG -128 32 Vdd
FLAG -272 368 0
FLAG -272 240 Vin
SYMBOL cktsym\\CurrentStarvedInverter 192 176 R0
SYMATTR InstName X1
SYMBOL cktsym\\vsource -272 96 R0
WINDOW 123 0 0 Left 2
WINDOW 39 0 0 Left 2
SYMATTR Value .4
SYMATTR InstName Vb
SYMBOL cktsym\\vsource -128 96 R0
SYMATTR Value 5
SYMATTR InstName Vdd
SYMBOL cktsym\\vsource -272 304 R0
WINDOW 123 0 0 Left 2
WINDOW 39 0 0 Left 2
SYMATTR Value PULSE(0 5 0 1p 1p 1m 2ms 5)
SYMATTR InstName Vin
TEXT -306 392 Left 2 !.tran 0 10ms 0ms 1ms
