Version 4
SHEET 1 880 680
WIRE -16 144 -48 144
WIRE 144 144 64 144
WIRE 320 160 240 160
WIRE 144 224 144 176
FLAG 320 160 Vout
FLAG 144 304 0
FLAG 288 64 0
FLAG -48 144 0
SYMBOL VariableDutyCycle_Component 192 160 R0
SYMATTR InstName X1
SYMBOL current -16 144 R270
WINDOW 0 32 40 VTop 2
WINDOW 3 -32 40 VBottom 2
SYMATTR InstName Current
SYMATTR Value 13.31µ
SYMBOL voltage 144 208 R0
WINDOW 123 0 0 Left 2
WINDOW 39 0 0 Left 2
SYMATTR InstName Vb
SYMATTR Value 1.85
SYMBOL voltage 288 -32 R0
SYMATTR InstName Vdd
SYMATTR Value 5
SYMBOL cktsym\\vdd 288 -16 R0
SYMATTR InstName U1
TEXT -64 48 Left 2 !.tran 0 1000ms 0 200u startup
TEXT -64 24 Left 2 !.include engr2420.sub
