Version 4
SHEET 1 880 680
WIRE 352 96 352 80
WIRE -112 112 -112 96
WIRE 320 112 288 112
WIRE 400 128 384 128
WIRE 160 144 160 112
WIRE 160 144 16 144
WIRE 288 144 160 144
WIRE 320 144 288 144
WIRE 160 160 160 144
WIRE 352 176 352 160
WIRE 528 208 528 192
WIRE 496 224 464 224
WIRE 16 240 16 144
WIRE 608 240 560 240
WIRE 160 256 160 224
WIRE 288 256 288 144
WIRE 496 256 288 256
WIRE 528 288 528 272
WIRE 400 320 400 128
WIRE 400 320 64 320
WIRE 16 352 16 336
FLAG 160 256 0
FLAG 352 176 0
FLAG 288 112 Vref
FLAG 16 352 0
FLAG 464 224 Vb
IOPIN 464 224 In
FLAG 528 288 0
FLAG 608 240 Vout
IOPIN 608 240 Out
FLAG -112 192 0
FLAG -112 96 Vref
FLAG 160 112 Iin
IOPIN 160 112 In
SYMBOL cap 144 160 R0
SYMATTR InstName C1
SYMATTR Value 100p
SYMBOL Opamps\\UniversalOpamp2 352 128 R0
SYMATTR InstName U1
SYMBOL nmos 64 240 M0
SYMATTR InstName M1
SYMATTR Value BSB012N03MX3
SYMBOL Opamps\\UniversalOpamp2 528 240 R0
SYMATTR InstName U2
SYMBOL voltage -112 96 R0
SYMATTR InstName V2
SYMATTR Value 4.9
SYMBOL cktsym\\vdd 528 192 R0
SYMATTR InstName U3
SYMBOL cktsym\\vdd 352 80 R0
SYMATTR InstName U4
